powerfactory/powerfactory-converter/src/test/resources/MTDC-ElmCoup_no-type.xiidm
<?xml version="1.0" encoding="UTF-8"?>
<iidm:network xmlns:iidm="http://www.powsybl.org/schema/iidm/1_18" id="MTDC-ElmCoup_no-type" caseDate="2021-01-01T10:00:00.000+02:00" forecastDistance="0" sourceFormat="POWER-FACTORY" minimumValidationLevel="STEADY_STATE_HYPOTHESIS">
    <iidm:dcNode id="central DC terminal" name="central DC terminal" nominalV="500.0"/>
    <iidm:dcNode id="DC terminal 12" name="DC terminal 12" nominalV="500.0"/>
    <iidm:dcNode id="DC terminal 13" name="DC terminal 13" nominalV="500.0"/>
    <iidm:dcNode id="DC terminal 14" name="DC terminal 14" nominalV="500.0"/>
    <iidm:dcNode id="DC terminal 15" name="DC terminal 15" nominalV="500.0"/>
    <iidm:dcNode id="DC terminal 16" name="DC terminal 16" nominalV="500.0"/>
    <iidm:dcSwitch id="DC Disconnector with default state" dcNode1="central DC terminal" dcNode2="DC terminal 12" kind="DISCONNECTOR" open="false" r="0.0" connected1="true" connected2="true"/>
    <iidm:dcSwitch id="Closed DC Disconnector" dcNode1="central DC terminal" dcNode2="DC terminal 13" kind="DISCONNECTOR" open="false" r="0.0" connected1="true" connected2="true"/>
    <iidm:dcSwitch id="Open DC Disconnector" dcNode1="central DC terminal" dcNode2="DC terminal 14" kind="DISCONNECTOR" open="true" r="0.0" connected1="true" connected2="true"/>
    <iidm:dcSwitch id="DC Breaker" dcNode1="central DC terminal" dcNode2="DC terminal 15" kind="BREAKER" open="false" r="0.0" connected1="true" connected2="true"/>
    <iidm:dcSwitch id="DC Disconnector with default aUsage" dcNode1="central DC terminal" dcNode2="DC terminal 16" kind="DISCONNECTOR" open="false" r="0.0" connected1="true" connected2="true"/>
</iidm:network>
